*Heading
** Job name: Job-2 Model name: Faltwerk
** Generated by: Abaqus/CAE 6.14-1
*Preprint, echo=NO, model=NO, history=NO, contact=NO
**
** PARTS
**
*Part, name=Einheitszelle
*Node
      1,          -1.,          -1.,           0.
      2,          -1., -0.833333313,           0.
      3,          -1., -0.666666687,           0.
      4,          -1.,         -0.5,           0.
      5,          -1., -0.333333343,           0.
      6, -0.666666687,          -1.,           0.
      7, -0.666666687, -0.833333313,           0.
      8, -0.666666687, -0.666666687,           0.
      9, -0.666666687,         -0.5,           0.
     10, -0.666666687, -0.333333343,           0.
     11, -0.333333343,          -1.,           0.
     12, -0.333333343, -0.833333313,           0.
     13, -0.333333343, -0.666666687,           0.
     14, -0.333333343,         -0.5,           0.
     15, -0.333333343, -0.333333343,           0.
     16,           0.,          -1.,           0.
     17,           0., -0.833333313,           0.
     18,           0., -0.666666687,           0.
     19,           0.,         -0.5,           0.
     20,           0., -0.333333343,           0.
** ... 205 like lines cut
*Element, type=S4R
  1,   3,   8,   9,   4
  2,   4,   9,  10,   5
  3,   8,  13,  14,   9
  4,   9,  14,  15,  10
  5,  11,  16,  17,  12
  6,  12,  17,  18,  13
  7,  16,  21,  22,  17
  8,  17,  22,  23,  18
  9,   1,   7,  82,   2
 10,   2,  82,   8,   3
 11,  82,   7,  13,   8
 12,   1,   6,  83,   7
 13,   6,  11,  12,  83
 14,  83,  12,  13,   7
 15,  13,  19,  84,  14
 16,  14,  84,  20,  15
 17,  84,  19,  25,  20
 18,  13,  18,  85,  19
 19,  18,  23,  24,  85
 20,  85,  24,  25,  19
** ... 180 like lines cut
*Nset, nset=SET-NODE-FHG6
   1,   7,  13,  19,  25,  31,  37,  43,  49,  53,  56,  59,  62,  94, 100, 106
 112, 118, 124, 130, 136, 142, 146, 149, 152, 155, 187, 188, 198, 199, 200, 201
 211, 212, 213, 214, 224, 225
*Elset, elset=SET-ELEM_UNTEN, generate
  1,  76,   1
*Elset, elset=SET-ELEM_OBEN, generate
  77,  152,    1
*Elset, elset=SET-ELEM_WAENDE, generate
 153,  200,    1
*End Part
**  
**
** ASSEMBLY
**
*Assembly, name=Assembly
**  
*Instance, name=Einheitszelle-1, part=Einheitszelle
*End Instance
**  
*End Assembly
** 
** MATERIALS
** 
*Material, name=ElastoAlu
*Elastic
7000., 0.34
** 
** BOUNDARY CONDITIONS
** 
** Name: SKM1 Type: Displacement/Rotation
*Boundary
_PickedSet808, 1, 1
_PickedSet808, 2, 2
_PickedSet808, 3, 3
** Name: SKM2 Type: Displacement/Rotation
*Boundary
_PickedSet809, 2, 2
_PickedSet809, 3, 3
** Name: uz0-Rand Type: Displacement/Rotation
*Boundary
Set-1, 3, 3
** ----------------------------------------------------------------
** 
** STEP: Last
** 
*Step, name=Last, nlgeom=NO
*Static
1., 1., 1e-05, 1.
** 
** LOADS
** 
** Name: qz   Type: Pressure
*Dsload
Surf-1, P, 0.005
** 
** OUTPUT REQUESTS
** 
*Restart, write, frequency=0
** 
** FIELD OUTPUT: F-Output-1
** 
*Output, field, variable=PRESELECT
** 
** HISTORY OUTPUT: H-Output-2
** 
** 
** HISTORY OUTPUT: H-Output-1
** 
*Output, history, variable=PRESELECT
*End Step
