*Heading
** Job name: Job-1 Model name: Model-1
** Generated by: Abaqus/CAE 6.14-1
*Preprint, echo=NO, model=NO, history=NO, contact=NO
**
** PARTS
**
*Part, name=Part-1
*End Part
**  
**
** ASSEMBLY
**
*Assembly, name=Assembly
**  
*Instance, name=Part-1-1, part=Part-1
*Node
      1,   16.3722134,   28.4962845,           0.
      2,         31.5,         28.5,           0.
      3,         31.5,         35.5,           0.
      4,       16.375,         35.5,           0.
      5,   16.3722134,   25.4962845,           0.
      6,           0.,         35.5,           0.
      7,           2.,         25.5,           0.
      8,           0.,          27.,           0.
      9,           2.,         16.5,           0.
     10,          9.5,         16.5,           0.
     11,          9.5,          14.,           0.
     12,          7.5,          11.,           0.
     13,          26.,           0.,           0.
     14,         27.5,           3.,           0.
     15,         27.5,       6.9375,           0.
     16,         27.5,         13.5,           0.
     17,         27.5,         21.5,           0.
     18,         31.5,         21.5,           0.
     19,   15.4922132,   10.4962835,           0.
     20,   21.9922123,   6.99628401,           0.
** ... 2318 like lines cut
*Element, type=S4R
  1,   1,  22, 325,  81
  2,  22,  23, 326, 325
  3,  23,  24, 327, 326
  4,  24,  25, 328, 327
  5,  25,  26, 329, 328
  6,  26,  27, 330, 329
  7,  27,  28, 331, 330
  8,  28,  29, 332, 331
  9,  29,  30, 333, 332
 10,  30,  31, 334, 333
 11,  31,  32, 335, 334
 12,  32,  33, 336, 335
 13,  33,  34, 337, 336
 14,  34,  35, 338, 337
 15,  35,  36, 339, 338
 16,  36,  37, 340, 339
 17,  37,  38, 341, 340
 18,  38,  39, 342, 341
 19,  39,  40, 343, 342
 20,  40,  41, 344, 343
** ... 2189 like lines cut
*Nset, nset=Set-vertikalLager
   1,   2,   3,   4,   5,   6,   7,   8,   9,  10,  11,  14,  15,  16,  17,  18
  19,  20,  22,  23,  24,  25,  26,  27,  28,  29,  30,  31,  32,  33,  34,  35
  36,  37,  38,  39,  40,  41,  42,  43,  44,  45,  46,  47,  48,  49,  50,  51
  52,  53,  54,  55,  56,  57,  58,  59,  60,  61,  62,  63,  64,  65,  66,  67
  68,  69,  70,  71,  72,  73,  74,  75,  76,  77,  78,  79,  80,  81,  82,  83
  84,  85,  86,  87,  88,  89,  90,  91,  92,  93,  94,  95,  96,  97,  98,  99
 100, 101, 102, 103, 104, 105, 106, 107, 108, 109, 110, 111, 112, 113, 114, 115
 116, 117, 118, 119, 120, 121, 122, 123, 124, 125, 126, 127, 128, 129, 130, 131
 132, 133, 134, 135, 136, 137, 138, 139, 140, 141, 142, 143, 144, 145, 146, 147
 148, 149, 150, 151, 152, 153, 154, 155, 166, 167, 168, 207, 208, 209, 210, 211
 220, 221, 222, 223, 224, 225, 226, 227, 228, 229, 230, 231, 232, 233, 234, 235
 236, 237, 238, 239, 240, 241, 242, 243
*Elset, elset=Set-vertikalLager
    1,    2,    3,    4,    5,    6,    7,    8,    9,   10,   11,   12,   13,   14,   15,   16
   17,   18,   19,   20,   21,   22,   23,   44,   45,   66,   67,   88,   89,  110,  111,  132
  133,  154,  155,  176,  177,  198,  199,  200,  201,  202,  203,  204,  205,  206,  207,  208
  209,  210,  211,  212,  213,  214,  215,  216,  217,  218,  219,  220,  221,  222,  223,  224
  225,  226,  227,  228,  229,  230,  231,  232,  233,  234,  246,  247,  259,  260,  272,  273
  285,  286,  298,  299,  311,  312,  324,  325,  337,  338,  350,  351,  363,  364,  376,  377
  389,  390,  402,  403,  415,  416,  428,  429,  441,  442,  454,  455,  467,  468,  480,  481
  493,  494,  506,  507,  519,  520,  532,  533,  534,  535,  536,  537,  538,  539,  540,  541
  542,  543,  544,  545,  546,  547,  548,  550,  552,  561,  562,  564,  572,  603,  616,  617
  618,  620,  625,  626,  708,  710,  726,  733,  737,  738,  753,  754,  755,  756,  760,  767
  774,  781,  785,  786,  789,  792,  794,  854,  878,  889,  894,  895,  913,  953,  959,  960
  961,  962,  963,  964,  965,  967,  968,  992,  994,  995,  997,  998,  999, 1000, 1001, 1002
 1003, 1004, 1005, 1006, 1007, 1008, 1116, 1123, 1124, 1129, 1131, 1132, 1138, 1417, 1454, 1456
 1457, 1463, 1478, 1540, 1582, 1600, 1626, 1710, 1724, 1737, 1806, 1807, 1838, 1839, 1990, 2109
 2120,
*Nset, nset=_PickedSet4, internal, generate
    1,  2338,     1
*Elset, elset=_PickedSet4, internal, generate
    1,  2209,     1
** Section: Section-1
*Shell Section, elset=_PickedSet4, material=Material-1
0.4, 5
*End Instance
**  
*Nset, nset=_PickedSet5, internal, instance=Part-1-1
 6,
*Nset, nset=_PickedSet6, internal, instance=Part-1-1
 3,
*Elset, elset=__PickedSurf4_SNEG, internal, instance=Part-1-1, generate
    1,  2209,     1
*Surface, type=ELEMENT, name=_PickedSurf4, internal
__PickedSurf4_SNEG, SNEG
*End Assembly
** 
** MATERIALS
** 
*Material, name=Material-1
*Elastic
 2.83e+07, 0.2
** ----------------------------------------------------------------
** 
** STEP: Step-1
** 
*Step, name=Step-1, nlgeom=NO
*Static
1., 1., 1e-05, 1.
** 
** BOUNDARY CONDITIONS
** 
** Name: BC-1 Type: Displacement/Rotation
*Boundary
Part-1-1.Set-vertikalLager, 3, 3
** Name: BC-HLager1 Type: Displacement/Rotation
*Boundary
_PickedSet5, 1, 1
_PickedSet5, 2, 2
** Name: BC-HLager2 Type: Displacement/Rotation
*Boundary
_PickedSet6, 2, 2
** 
** LOADS
** 
** Name: Load-1   Type: Pressure
*Dsload
_PickedSurf4, P, -18.525
** 
** OUTPUT REQUESTS
** 
*Restart, write, frequency=0
*Print, solve=NO
** 
** FIELD OUTPUT: F-Output-1
** 
*Output, field
*Node Output
CF, RF, U
*Element Output, directions=YES
LE, PE, PEEQ, PEMAG, S, SF
*Contact Output
CDISP, CSTRESS
** 
** HISTORY OUTPUT: H-Output-1
** 
*Output, history, variable=PRESELECT
*End Step
