*Heading
** Job name: Job-2 Model name: Model-1
** Generated by: Abaqus/CAE 6.14-1
*Preprint, echo=NO, model=NO, history=NO, contact=NO
**
** PARTS
**
*Part, name=Kasten
*Node
      1,           0.,         97.5,         400.
      2,          44.,         97.5,         400.
      3,          44.,         97.5,           0.
      4,           0.,         97.5,           0.
      5,         47.5,          94.,         400.
      6,         47.5,          94.,           0.
      7,         47.5,         -94.,         400.
      8,         47.5,         -94.,           0.
      9,          44.,        -97.5,         400.
     10,          44.,        -97.5,           0.
     11,           0.,        -97.5,         400.
     12,           0.,        -97.5,           0.
     13,           4.,         97.5,         400.
     14,           8.,         97.5,         400.
     15,          12.,         97.5,         400.
     16,          16.,         97.5,         400.
     17,          20.,         97.5,         400.
     18,          24.,         97.5,         400.
     19,          28.,         97.5,         400.
     20,          32.,         97.5,         400.
** ... 4572 like lines cut
*Element, type=S4R
  1,   1,  13, 459, 110
  2,  13,  14, 460, 459
  3,  14,  15, 461, 460
  4,  15,  16, 462, 461
  5,  16,  17, 463, 462
  6,  17,  18, 464, 463
  7,  18,  19, 465, 464
  8,  19,  20, 466, 465
  9,  20,  21, 467, 466
 10,  21,  22, 468, 467
 11,  22,   2,  23, 468
 12, 110, 459, 469, 109
 13, 459, 460, 470, 469
 14, 460, 461, 471, 470
 15, 461, 462, 472, 471
 16, 462, 463, 473, 472
 17, 463, 464, 474, 473
 18, 464, 465, 475, 474
 19, 465, 466, 476, 475
 20, 466, 467, 477, 476
** ... 4420 like lines cut
*Nset, nset=_PickedSet2, internal, generate
    1,  4592,     1
*Elset, elset=_PickedSet2, internal, generate
    1,  4440,     1
*Nset, nset=NODE_LAST
   1,   2,   5,   7,   9,  11,  13,  14,  15,  16,  17,  18,  19,  20,  21,  22
 111, 112, 113, 114, 115, 116, 117, 118, 119, 120, 121, 122, 123, 124, 125, 126
 127, 128, 129, 188, 189, 190, 191, 192, 193, 194, 195, 196, 197, 198, 199, 200
 201, 202, 203, 204, 205, 206, 207, 208, 209, 210, 211, 212, 213, 214, 215, 216
 217, 218, 219, 220, 221, 222, 223, 224, 225, 226, 305, 306, 307, 308, 309, 310
 311, 312, 313, 314, 315, 316, 317, 318, 319, 320, 321, 322, 323, 382, 383, 384
 385, 386, 387, 388, 389, 390, 391, 392, 393, 394, 395, 396, 397, 398, 399, 400
*Nset, nset=NODE_BOUN
   3,   4,   6,   8,  10,  12,  62,  63,  64,  65,  66,  67,  68,  69,  70,  71
 169, 170, 171, 172, 173, 174, 175, 176, 177, 178, 179, 180, 181, 182, 183, 184
 185, 186, 187, 266, 267, 268, 269, 270, 271, 272, 273, 274, 275, 276, 277, 278
 279, 280, 281, 282, 283, 284, 285, 286, 287, 288, 289, 290, 291, 292, 293, 294
 295, 296, 297, 298, 299, 300, 301, 302, 303, 304, 363, 364, 365, 366, 367, 368
 369, 370, 371, 372, 373, 374, 375, 376, 377, 378, 379, 380, 381, 440, 441, 442
 443, 444, 445, 446, 447, 448, 449, 450, 451, 452, 453, 454, 455, 456, 457, 458
** Section: Section-1
*Shell Section, elset=_PickedSet2, material=isotrop
5., 5
*End Part
**  
**
** ASSEMBLY
**
*Assembly, name=Assembly
**  
*Instance, name=Kasten-1, part=Kasten
*End Instance
**  
*Nset, nset=_PickedSet6, internal, instance=Kasten-1
   1,   2,   5,   7,   9,  11,  13,  14,  15,  16,  17,  18,  19,  20,  21,  22
 111, 112, 113, 114, 115, 116, 117, 118, 119, 120, 121, 122, 123, 124, 125, 126
 127, 128, 129, 188, 189, 190, 191, 192, 193, 194, 195, 196, 197, 198, 199, 200
 201, 202, 203, 204, 205, 206, 207, 208, 209, 210, 211, 212, 213, 214, 215, 216
 217, 218, 219, 220, 221, 222, 223, 224, 225, 226, 305, 306, 307, 308, 309, 310
 311, 312, 313, 314, 315, 316, 317, 318, 319, 320, 321, 322, 323, 382, 383, 384
 385, 386, 387, 388, 389, 390, 391, 392, 393, 394, 395, 396, 397, 398, 399, 400
*Elset, elset=_PickedSet6, internal, instance=Kasten-1
    1,    2,    3,    4,    5,    6,    7,    8,    9,   10,   11,  441,  442,  443,  444,  445
  446,  447,  448,  449,  450,  451,  452,  453,  454,  455,  456,  457,  458,  459,  460, 1241
 1242, 1243, 1244, 1245, 1246, 1247, 1248, 1249, 1250, 1251, 1252, 1253, 1254, 1255, 1256, 1257
 1258, 1259, 1260, 1261, 1262, 1263, 1264, 1265, 1266, 1267, 1268, 1269, 1270, 1271, 1272, 1273
 1274, 1275, 1276, 1277, 1278, 1279, 1280, 2841, 2842, 2843, 2844, 2845, 2846, 2847, 2848, 2849
 2850, 2851, 2852, 2853, 2854, 2855, 2856, 2857, 2858, 2859, 2860, 3641, 3642, 3643, 3644, 3645
 3646, 3647, 3648, 3649, 3650, 3651, 3652, 3653, 3654, 3655, 3656, 3657, 3658, 3659, 3660
*Nset, nset=_PickedSet8, internal, instance=Kasten-1
 4,
*Nset, nset=_PickedSet11, internal, instance=Kasten-1
   3,   4,   6,   8,  10,  12,  62,  63,  64,  65,  66,  67,  68,  69,  70,  71
 169, 170, 171, 172, 173, 174, 175, 176, 177, 178, 179, 180, 181, 182, 183, 184
 185, 186, 187, 266, 267, 268, 269, 270, 271, 272, 273, 274, 275, 276, 277, 278
 279, 280, 281, 282, 283, 284, 285, 286, 287, 288, 289, 290, 291, 292, 293, 294
 295, 296, 297, 298, 299, 300, 301, 302, 303, 304, 363, 364, 365, 366, 367, 368
 369, 370, 371, 372, 373, 374, 375, 376, 377, 378, 379, 380, 381, 440, 441, 442
 443, 444, 445, 446, 447, 448, 449, 450, 451, 452, 453, 454, 455, 456, 457, 458
*Elset, elset=_PickedSet11, internal, instance=Kasten-1
  430,  431,  432,  433,  434,  435,  436,  437,  438,  439,  440, 1221, 1222, 1223, 1224, 1225
 1226, 1227, 1228, 1229, 1230, 1231, 1232, 1233, 1234, 1235, 1236, 1237, 1238, 1239, 1240, 2801
 2802, 2803, 2804, 2805, 2806, 2807, 2808, 2809, 2810, 2811, 2812, 2813, 2814, 2815, 2816, 2817
 2818, 2819, 2820, 2821, 2822, 2823, 2824, 2825, 2826, 2827, 2828, 2829, 2830, 2831, 2832, 2833
 2834, 2835, 2836, 2837, 2838, 2839, 2840, 3621, 3622, 3623, 3624, 3625, 3626, 3627, 3628, 3629
 3630, 3631, 3632, 3633, 3634, 3635, 3636, 3637, 3638, 3639, 3640, 4421, 4422, 4423, 4424, 4425
 4426, 4427, 4428, 4429, 4430, 4431, 4432, 4433, 4434, 4435, 4436, 4437, 4438, 4439, 4440
*Nset, nset=_PickedSet12, internal, instance=Kasten-1
 4,
*Nset, nset=_PickedSet13, internal, instance=Kasten-1
   1,   4,  11,  12,  72,  73,  74,  75,  76,  77,  78,  79,  80,  81,  82,  83
  84,  85,  86,  87,  88,  89,  90,  91,  92,  93,  94,  95,  96,  97,  98,  99
 100, 101, 102, 103, 104, 105, 106, 107, 108, 109, 110, 401, 402, 403, 404, 405
 406, 407, 408, 409, 410, 411, 412, 413, 414, 415, 416, 417, 418, 419, 420, 421
 422, 423, 424, 425, 426, 427, 428, 429, 430, 431, 432, 433, 434, 435, 436, 437
 438, 439
*Elset, elset=_PickedSet13, internal, instance=Kasten-1
    1,   12,   23,   34,   45,   56,   67,   78,   89,  100,  111,  122,  133,  144,  155,  166
  177,  188,  199,  210,  221,  232,  243,  254,  265,  276,  287,  298,  309,  320,  331,  342
  353,  364,  375,  386,  397,  408,  419,  430, 3660, 3680, 3700, 3720, 3740, 3760, 3780, 3800
 3820, 3840, 3860, 3880, 3900, 3920, 3940, 3960, 3980, 4000, 4020, 4040, 4060, 4080, 4100, 4120
 4140, 4160, 4180, 4200, 4220, 4240, 4260, 4280, 4300, 4320, 4340, 4360, 4380, 4400, 4420, 4440
*Nset, nset=_PickedSet14, internal, instance=Kasten-1
   3,   4,   6,   8,  10,  12,  62,  63,  64,  65,  66,  67,  68,  69,  70,  71
 169, 170, 171, 172, 173, 174, 175, 176, 177, 178, 179, 180, 181, 182, 183, 184
 185, 186, 187, 266, 267, 268, 269, 270, 271, 272, 273, 274, 275, 276, 277, 278
 279, 280, 281, 282, 283, 284, 285, 286, 287, 288, 289, 290, 291, 292, 293, 294
 295, 296, 297, 298, 299, 300, 301, 302, 303, 304, 363, 364, 365, 366, 367, 368
 369, 370, 371, 372, 373, 374, 375, 376, 377, 378, 379, 380, 381, 440, 441, 442
 443, 444, 445, 446, 447, 448, 449, 450, 451, 452, 453, 454, 455, 456, 457, 458
*Elset, elset=_PickedSet14, internal, instance=Kasten-1
  430,  431,  432,  433,  434,  435,  436,  437,  438,  439,  440, 1221, 1222, 1223, 1224, 1225
 1226, 1227, 1228, 1229, 1230, 1231, 1232, 1233, 1234, 1235, 1236, 1237, 1238, 1239, 1240, 2801
 2802, 2803, 2804, 2805, 2806, 2807, 2808, 2809, 2810, 2811, 2812, 2813, 2814, 2815, 2816, 2817
 2818, 2819, 2820, 2821, 2822, 2823, 2824, 2825, 2826, 2827, 2828, 2829, 2830, 2831, 2832, 2833
 2834, 2835, 2836, 2837, 2838, 2839, 2840, 3621, 3622, 3623, 3624, 3625, 3626, 3627, 3628, 3629
 3630, 3631, 3632, 3633, 3634, 3635, 3636, 3637, 3638, 3639, 3640, 4421, 4422, 4423, 4424, 4425
 4426, 4427, 4428, 4429, 4430, 4431, 4432, 4433, 4434, 4435, 4436, 4437, 4438, 4439, 4440
*Surface, type=NODE, name=_PickedSet11_CNS_, internal
_PickedSet11, 1.
** Constraint: Constraint-1
*Coupling, constraint name=Constraint-1, ref node=_PickedSet12, surface=_PickedSet11_CNS_
*Kinematic
*End Assembly
** 
** MATERIALS
** 
*Material, name=isotrop
*Elastic
210000., 0.3
** 
** BOUNDARY CONDITIONS
** 
** Name: BC-1 Type: Displacement/Rotation
*Boundary
_PickedSet6, 1, 1
_PickedSet6, 2, 2
_PickedSet6, 3, 3
_PickedSet6, 4, 4
_PickedSet6, 5, 5
_PickedSet6, 6, 6
** Name: BC-2 Type: Symmetry/Antisymmetry/Encastre
*Boundary
_PickedSet13, XSYMM
** Name: BC-3 Type: Displacement/Rotation
*Boundary
_PickedSet14, 1, 1
_PickedSet14, 3, 3
_PickedSet14, 4, 4
_PickedSet14, 5, 5
_PickedSet14, 6, 6
** ----------------------------------------------------------------
** 
** STEP: Step-1
** 
*Step, name=Step-1, nlgeom=NO
druecken
*Static
1., 1., 1e-05, 1.
** 
** LOADS
** 
** Name: Load-1   Type: Concentrated force
*Cload
_PickedSet8, 2, -100000.
_PickedSet8, 3, 0.
** 
** OUTPUT REQUESTS
** 
*Restart, write, frequency=0
*Print, solve=NO
** 
** FIELD OUTPUT: F-Output-1
** 
*Output, field
*Node Output
CF, RF, U
*Element Output, directions=YES
1, 2, 3, 4, 5
LE, PE, PEEQ, PEMAG, PS, S, SF, TSHR, VE, VEEQ, VS
*Contact Output
CDISP, CSTRESS
** 
** HISTORY OUTPUT: H-Output-1
** 
*Output, history, variable=PRESELECT
*End Step
